*Heading
** Job name: Job-1 Model name: Model-1
** Generated by: Abaqus/CAE 2020
*Preprint, echo=NO, model=NO, history=NO, contact=NO
**
** PARTS
**
*Part, name=Part-1
*Node
      1,           0.,           0.
      2,  0.100000001,           0.
      3,  0.200000003,           0.
      4,  0.300000012,           0.
      5,  0.400000006,           0.
      6,          0.5,           0.
      7,  0.600000024,           0.
      8,  0.699999988,           0.
      9,  0.800000012,           0.
     10,  0.899999976,           0.
     11,           1.,           0.
     12,           0.,  0.100000001
     13,  0.100000001,  0.100000001
     14,  0.200000003,  0.100000001
     15,  0.300000012,  0.100000001
     16,  0.400000006,  0.100000001
     17,          0.5,  0.100000001
     18,  0.600000024,  0.100000001
     19,  0.699999988,  0.100000001
     20,  0.800000012,  0.100000001
** ... 101 like lines cut
*Element, type=CPS3
  1,   1,   2,  13
  2,  13,  12,   1
  3,   2,   3,  14
  4,  14,  13,   2
  5,   3,   4,  15
  6,  15,  14,   3
  7,   4,   5,  16
  8,  16,  15,   4
  9,   5,   6,  17
 10,  17,  16,   5
 11,   6,   7,  18
 12,  18,  17,   6
 13,   7,   8,  19
 14,  19,  18,   7
 15,   8,   9,  20
 16,  20,  19,   8
 17,   9,  10,  21
 18,  21,  20,   9
 19,  10,  11,  22
 20,  22,  21,  10
** ... 180 like lines cut
*Nset, nset=Set-2, generate
   1,  121,    1
*Elset, elset=Set-2, generate
   1,  200,    1
** Section: Section-1
*Solid Section, elset=Set-2, material=Material-1
,
*End Part
**  
**
** ASSEMBLY
**
*Assembly, name=Assembly
**  
*Instance, name=Part-1-1, part=Part-1
*End Instance
**  
*Elset, elset=textregion, instance=Part-1-1
   1,   2,   5,   8,  15,  16,  21,  22,  27,  29,  30,  31,  32,  33,  34,  35
  36,  41,  42,  49,  52,  55,  56,  61,  62,  71,  74,  75,  76,  81,  82,  93
  95,  96, 101, 102, 103, 104, 105, 106, 107, 108, 109, 110, 111, 112, 113, 114
 115, 116, 117, 118, 119, 120, 121, 122, 131, 132, 141, 142, 151, 152, 153, 154
 155, 156, 157, 158, 159, 160, 161, 162, 171, 172, 181, 182, 183, 184, 185, 186
 187, 188, 189, 190, 191, 192, 193, 194, 195, 196, 197, 198, 199, 200
*End Assembly
** 
** MATERIALS
** 
*Material, name=Material-1
*Elastic
10., 0.3
